Circuit: * C:\Users\perry\Desktop\Files In Use\ELEC3100\Design Project\PNP DC Offset.asc

Direct Newton iteration for .op point succeeded.
.step r=3880
.step r=3890
.step r=3900
.step r=3910
.step r=3920
.step r=3930
.step r=3940
.step r=3950
.step r=3960
.step r=3970
.step r=3980
.step r=3990
.step r=4000
.step r=4010
.step r=4020
.step r=4030
.step r=4040
.step r=4050
.step r=4060
.step r=4070
.step r=4080

Date: Tue May 18 09:18:00 2021
Total elapsed time: 0.169 seconds.

tnom = 27
temp = 27
method = modified trap
totiter = 640
traniter = 634
tranpoints = 318
accept = 318
rejected = 0
matrix size = 11
fillins = 0
solver = Normal
Matrix Compiler1: 458 bytes object code size  0.1/0.1/[0.1]
Matrix Compiler2: 793 bytes object code size  0.1/0.1/[0.1]

