Circuit: * C:\Users\perry\Desktop\Files In Use\ELEC3400\Design Project\Git\ELEC3400-Design-Project\Push Pull\Diode Test.asc

Direct Newton iteration for .op point succeeded.

Date: Tue May 18 16:31:13 2021
Total elapsed time: 0.071 seconds.

tnom = 27
temp = 27
method = modified trap
totiter = 640
traniter = 634
tranpoints = 318
accept = 318
rejected = 0
matrix size = 6
fillins = 0
solver = Normal
Matrix Compiler1:      10 opcodes  0.1/[0.0]/0.0
Matrix Compiler2: off  [0.1]/0.1/0.1

