Circuit: * C:\Users\perry\Desktop\Files In Use\ELEC3400\Design Project\Git\ELEC3400-Design-Project\Push Pull\Draft2.asc

.OP point found by inspection.

Date: Tue May 18 14:34:49 2021
Total elapsed time: 0.059 seconds.

tnom = 27
temp = 27
method = modified trap
totiter = 717
traniter = 717
tranpoints = 336
accept = 325
rejected = 11
matrix size = 4
fillins = 0
solver = Normal
Matrix Compiler1:       7 opcodes  0.1/[0.0]/0.0
Matrix Compiler2: off  [0.0]/0.0/0.0

