Circuit: * C:\Users\perry\Desktop\Files In Use\ELEC3400\Design Project\Git\ELEC3400-Design-Project\Push Pull\PushPull.asc

Direct Newton iteration for .op point succeeded.

Date: Tue May 18 16:32:27 2021
Total elapsed time: 0.183 seconds.

tnom = 27
temp = 27
method = modified trap
totiter = 239
traniter = 234
tranpoints = 118
accept = 118
rejected = 0
matrix size = 17
fillins = 0
solver = Normal
Matrix Compiler1: 1016 bytes object code size  0.2/0.2/[0.1]
Matrix Compiler2: off  [0.2]/1.0/0.2

