Circuit: * C:\Users\perry\Desktop\Files In Use\ELEC3400\Design Project\Git\ELEC3400-Design-Project\Audio Testing\Simplified.asc

Direct Newton iteration for .op point succeeded.

Date: Tue May 18 15:29:53 2021
Total elapsed time: 6.326 seconds.

tnom = 27
temp = 27
method = modified trap
totiter = 1117311
traniter = 1117294
tranpoints = 558648
accept = 488780
rejected = 69868
matrix size = 30
fillins = 32
solver = Normal
Matrix Compiler1: 2.81 KB object code size  0.5/0.3/[0.2]
Matrix Compiler2: 3.01 KB object code size  0.3/0.4/[0.3]

